Version 4
SHEET 1 996 876
WIRE 208 -128 -480 -128
WIRE -192 -96 -624 -96
WIRE 368 -32 208 -32
WIRE 416 -32 368 -32
WIRE 560 -32 496 -32
WIRE 800 -32 560 -32
WIRE 896 -32 880 -32
WIRE 944 -32 896 -32
WIRE -336 16 -416 16
WIRE -192 16 -192 -96
WIRE -192 16 -272 16
WIRE -128 16 -192 16
WIRE -16 16 -64 16
WIRE 656 32 448 32
WIRE 896 32 896 -32
WIRE 896 32 656 32
WIRE 448 48 448 32
WIRE 656 48 656 32
WIRE 896 80 896 32
WIRE 896 80 768 80
WIRE -480 96 -480 -128
WIRE -416 96 -416 16
WIRE -416 96 -480 96
WIRE -16 96 -16 16
WIRE 112 96 -16 96
WIRE 656 128 656 112
WIRE 768 160 768 80
WIRE 768 160 656 160
WIRE 800 160 768 160
WIRE 896 160 880 160
WIRE 944 160 896 160
WIRE 112 176 112 96
WIRE 208 176 112 176
WIRE 448 176 448 112
WIRE 448 176 208 176
WIRE 656 176 656 160
WIRE -624 192 -624 -96
WIRE -416 192 -416 96
WIRE -336 192 -416 192
WIRE -192 192 -272 192
WIRE -128 192 -192 192
WIRE -16 192 -16 96
WIRE -16 192 -64 192
WIRE 656 256 656 240
WIRE 896 256 896 160
WIRE 896 256 768 256
WIRE -624 320 -624 272
WIRE -272 320 -624 320
WIRE -192 320 -192 192
WIRE -192 320 -272 320
WIRE 768 336 768 256
WIRE 768 336 656 336
WIRE 800 336 768 336
WIRE 896 336 880 336
WIRE 944 336 896 336
WIRE -272 352 -272 320
WIRE 656 352 656 336
WIRE 208 400 208 176
WIRE 256 400 208 400
WIRE 480 400 336 400
WIRE 208 432 208 400
WIRE 656 432 656 416
WIRE 896 432 896 336
WIRE 896 432 768 432
WIRE 768 528 768 432
WIRE 800 528 768 528
WIRE 960 528 880 528
WIRE 976 528 960 528
WIRE 976 544 976 528
WIRE 480 672 480 400
WIRE 800 672 480 672
WIRE 944 672 880 672
FLAG 208 -32 T10
FLAG 208 176 T2
FLAG 656 128 0
FLAG 368 -32 C4.1
FLAG 560 -32 C4.3
FLAG 944 -32 B8
FLAG 944 160 B7
FLAG 944 336 B6
FLAG 960 528 B5
FLAG 656 256 0
FLAG 656 432 0
FLAG 944 672 B4
FLAG 976 544 0
FLAG 208 432 0
FLAG -272 352 0
SYMBOL ind 400 -16 R270
WINDOW 0 32 56 VTop 2
WINDOW 3 5 56 VBottom 2
SYMATTR InstName L4
SYMATTR Value 10.7µ
SYMATTR SpiceLine Rser=500
SYMBOL ind 240 416 R270
WINDOW 0 32 56 VTop 2
WINDOW 3 5 56 VBottom 2
SYMATTR InstName L3
SYMATTR Value 10.7H
SYMATTR SpiceLine Rser=500
SYMBOL res 896 -48 R90
WINDOW 0 0 56 VBottom 2
WINDOW 3 32 56 VTop 2
SYMATTR InstName P9
SYMATTR Value 200
SYMBOL res 896 144 R90
WINDOW 0 0 56 VBottom 2
WINDOW 3 32 56 VTop 2
SYMATTR InstName P6
SYMATTR Value 200
SYMBOL res 896 320 R90
WINDOW 0 0 56 VBottom 2
WINDOW 3 32 56 VTop 2
SYMATTR InstName R3
SYMATTR Value 200
SYMBOL res 896 512 R90
WINDOW 0 0 56 VBottom 2
WINDOW 3 32 56 VTop 2
SYMATTR InstName R4
SYMATTR Value 200
SYMBOL cap 640 48 R0
SYMATTR InstName C3
SYMATTR Value 2000µ
SYMBOL cap 432 48 R0
SYMATTR InstName C4
SYMATTR Value 2000µ
SYMBOL cap 640 176 R0
SYMATTR InstName C2
SYMATTR Value 2000µ
SYMBOL cap 640 352 R0
SYMATTR InstName C1
SYMATTR Value 2000µ
SYMBOL res 896 656 R90
WINDOW 0 0 56 VBottom 2
WINDOW 3 32 56 VTop 2
SYMATTR InstName R1
SYMATTR Value 200
SYMBOL voltage -624 176 R0
WINDOW 123 0 0 Left 0
WINDOW 39 0 0 Left 0
SYMATTR InstName V2
SYMATTR Value SINE(0 120 50)
SYMBOL schottky -272 0 R90
WINDOW 0 0 32 VBottom 2
WINDOW 3 32 32 VTop 2
SYMATTR InstName D1
SYMATTR Value 1N5817
SYMATTR Description Diode
SYMATTR Type diode
SYMBOL schottky -272 176 R90
WINDOW 0 0 32 VBottom 2
WINDOW 3 32 32 VTop 2
SYMATTR InstName D2
SYMATTR Value 1N5817
SYMATTR Description Diode
SYMATTR Type diode
SYMBOL schottky -128 32 R270
WINDOW 0 32 32 VTop 2
WINDOW 3 0 32 VBottom 2
SYMATTR InstName D3
SYMATTR Value 1N5817
SYMATTR Description Diode
SYMATTR Type diode
SYMBOL schottky -128 208 R270
WINDOW 0 32 32 VTop 2
WINDOW 3 0 32 VBottom 2
SYMATTR InstName D4
SYMATTR Value 1N5818
SYMATTR Description Diode
SYMATTR Type diode
TEXT 272 584 Left 2 !.tran 1
