Version 4
SHEET 1 1728 952
WIRE 480 -32 48 -32
WIRE 320 48 256 48
WIRE 480 48 480 -32
WIRE 480 48 384 48
WIRE 576 48 480 48
WIRE 704 48 640 48
WIRE 48 128 48 -32
WIRE 256 128 256 48
WIRE 256 128 224 128
WIRE 704 128 704 48
WIRE 800 128 704 128
WIRE 864 128 800 128
WIRE 992 128 944 128
WIRE 1088 128 992 128
WIRE 1200 128 1168 128
WIRE 1328 128 1200 128
WIRE 1376 128 1328 128
WIRE 800 176 800 128
WIRE 992 176 992 128
WIRE 1200 176 1200 128
WIRE 256 192 256 128
WIRE 336 192 256 192
WIRE 480 192 400 192
WIRE 576 192 480 192
WIRE 640 192 624 192
WIRE 704 192 704 128
WIRE 704 192 640 192
WIRE 1328 240 1328 128
WIRE 1600 240 1328 240
WIRE 1200 272 1200 240
WIRE 48 288 48 208
WIRE 480 288 480 192
WIRE 480 288 48 288
WIRE 224 320 224 128
WIRE 512 320 224 320
WIRE 800 320 800 240
WIRE 800 320 512 320
WIRE 992 320 992 240
WIRE 992 320 800 320
WIRE 1600 368 1600 240
WIRE 720 432 720 400
WIRE 1040 432 720 432
WIRE 1136 432 1120 432
WIRE 1200 432 1136 432
WIRE 1344 432 1200 432
WIRE 720 464 720 432
WIRE 1136 464 1136 432
WIRE 1600 480 1600 448
WIRE 512 560 512 320
WIRE 544 560 512 560
WIRE 720 560 720 528
WIRE 720 560 624 560
WIRE 800 560 720 560
WIRE 832 560 800 560
WIRE 720 592 720 560
WIRE 1136 592 1136 528
WIRE 1136 592 1056 592
WIRE 1136 640 1136 592
WIRE 1200 656 1200 432
WIRE 1216 656 1200 656
WIRE 1328 656 1296 656
WIRE 1376 656 1328 656
WIRE 1488 656 1456 656
WIRE 1488 704 1488 656
WIRE 720 720 720 672
WIRE 1328 752 1328 656
WIRE 1440 752 1328 752
WIRE 1328 800 1328 752
WIRE 1328 912 1328 864
FLAG 1376 128 B160V
FLAG 1200 272 0
FLAG 720 400 B160V
FLAG 720 720 0
FLAG 800 560 BPG
FLAG 1344 432 B80V
FLAG 1136 640 0
FLAG 1488 704 0
FLAG 1056 592 BGND
FLAG 1328 912 0
FLAG 1440 752 B40V
FLAG 1600 480 0
SYMBOL voltage 48 112 R0
WINDOW 123 0 0 Left 0
WINDOW 39 0 0 Left 0
SYMATTR InstName V1
SYMATTR Value SINE(0 380 50)
SYMBOL diode 320 64 R270
WINDOW 0 32 32 VTop 2
WINDOW 3 0 32 VBottom 2
SYMATTR InstName D1
SYMATTR Value VS-E7MH0112
SYMBOL diode 576 64 R270
WINDOW 0 32 32 VTop 2
WINDOW 3 0 32 VBottom 2
SYMATTR InstName D2
SYMATTR Value VS-E7MH0112
SYMBOL diode 336 208 R270
WINDOW 0 32 32 VTop 2
WINDOW 3 0 32 VBottom 2
SYMATTR InstName D3
SYMATTR Value VS-E7MH0112
SYMBOL diode 576 208 R270
WINDOW 0 32 32 VTop 2
WINDOW 3 0 32 VBottom 2
SYMATTR InstName D4
SYMATTR Value VS-E7MH0112
SYMBOL res 1584 352 R0
SYMATTR InstName R1
SYMATTR Value 3k
SYMBOL ind 848 144 R270
WINDOW 0 32 56 VTop 2
WINDOW 3 5 56 VBottom 2
SYMATTR InstName L1
SYMATTR Value 10
SYMBOL cap 784 176 R0
SYMATTR InstName C1
SYMATTR Value 4.7µ
SYMBOL cap 976 176 R0
SYMATTR InstName C2
SYMATTR Value 4.7µ
SYMBOL res 1184 112 R90
WINDOW 0 0 56 VBottom 2
WINDOW 3 32 56 VTop 2
SYMATTR InstName RV160V
SYMATTR Value 2.5k
SYMBOL ind 528 576 R270
WINDOW 0 32 56 VTop 2
WINDOW 3 5 56 VBottom 2
SYMATTR InstName L2
SYMATTR Value 10
SYMBOL cap 1184 176 R0
SYMATTR InstName C3
SYMATTR Value 4.7µ
SYMBOL cap 704 464 R0
SYMATTR InstName C4
SYMATTR Value 2.2µ
SYMBOL res 736 688 R180
WINDOW 0 36 76 Left 2
WINDOW 3 36 40 Left 2
SYMATTR InstName RVPG
SYMATTR Value 300
SYMBOL res 1136 416 R90
WINDOW 0 0 56 VBottom 2
WINDOW 3 32 56 VTop 2
SYMATTR InstName RV80V
SYMATTR Value 8k
SYMBOL cap 1120 464 R0
SYMATTR InstName C5
SYMATTR Value 4µ
SYMBOL res 1312 640 R90
WINDOW 0 0 56 VBottom 2
WINDOW 3 32 56 VTop 2
SYMATTR InstName RV40V-1
SYMATTR Value 17k
SYMBOL res 1472 640 R90
WINDOW 0 0 56 VBottom 2
WINDOW 3 32 56 VTop 2
SYMATTR InstName RV40V-2
SYMATTR Value 17k
SYMBOL cap 1312 800 R0
SYMATTR InstName C6
SYMATTR Value 2.2µ
TEXT 176 360 Left 2 !.tran 1
TEXT 56 656 Left 2 ;RV* : Résistances variables\nRV160V et RV80V : 1 <-> 8.5K\nRV40V : 1 <-> 35K (pont diviseur)\nRVPG (polarisation de grille) : 0 <-> 1K
TEXT 56 824 Left 2 ;B160V : sortie 160V\nB80V : sortie 80V\nB40V : sortie 40V\nBGND : GND\nBPG : sortie polarisation de grille (tension négative)
