Version 4
SHEET 1 1548 852
WIRE 416 0 80 0
WIRE 432 0 416 0
WIRE 528 0 496 0
WIRE 704 0 528 0
WIRE 768 0 704 0
WIRE 1136 0 848 0
WIRE 1136 32 1136 0
WIRE 80 96 80 0
WIRE 416 96 416 0
WIRE 432 96 416 96
WIRE 528 96 528 0
WIRE 528 96 496 96
WIRE 832 128 768 128
WIRE 896 128 832 128
WIRE 1136 128 1136 112
WIRE 1136 128 896 128
WIRE 1296 128 1136 128
WIRE 1136 160 1136 128
WIRE 432 192 416 192
WIRE 528 192 528 96
WIRE 528 192 496 192
WIRE 704 224 704 0
WIRE 768 224 768 128
WIRE 832 224 832 128
WIRE 896 224 896 128
WIRE 1136 256 1136 240
WIRE 1360 256 1136 256
WIRE 1408 256 1360 256
WIRE 80 288 80 176
WIRE 176 288 80 288
WIRE 416 288 416 192
WIRE 416 288 176 288
WIRE 432 288 416 288
WIRE 528 288 528 192
WIRE 528 288 496 288
WIRE 1136 288 1136 256
WIRE 1360 320 1360 256
WIRE 176 336 176 288
WIRE 704 352 704 288
WIRE 768 352 768 288
WIRE 768 352 704 352
WIRE 896 448 896 288
WIRE 1136 448 1136 368
WIRE 1136 448 896 448
WIRE 1248 448 1248 432
WIRE 1248 448 1136 448
WIRE 1296 448 1248 448
WIRE 1360 448 1360 384
WIRE 1360 448 1296 448
WIRE 1296 480 1296 448
WIRE 1136 512 1136 448
WIRE 832 640 832 288
WIRE 1136 640 1136 592
WIRE 1136 640 832 640
WIRE 1296 640 1136 640
WIRE 704 720 704 352
WIRE 784 720 704 720
WIRE 1136 720 1136 640
WIRE 1136 720 864 720
FLAG 176 336 0
FLAG 1296 480 0
SYMBOL diode 432 16 R270
WINDOW 0 32 32 VTop 2
WINDOW 3 0 32 VBottom 2
SYMATTR InstName D1
SYMATTR Value RRD20TJ10S
SYMBOL diode 432 304 R270
WINDOW 0 32 32 VTop 2
WINDOW 3 0 32 VBottom 2
SYMATTR InstName D2
SYMATTR Value RRD20TJ10S
SYMBOL ind 752 16 R270
WINDOW 0 32 56 VTop 2
WINDOW 3 5 56 VBottom 2
SYMATTR InstName L2
SYMATTR Value 10
SYMBOL cap 496 80 R90
WINDOW 0 0 32 VBottom 2
WINDOW 3 32 32 VTop 2
SYMATTR InstName C20
SYMATTR Value 10n
SYMBOL cap 496 176 R90
WINDOW 0 0 32 VBottom 2
WINDOW 3 32 32 VTop 2
SYMATTR InstName C21
SYMATTR Value 10n
SYMBOL voltage 80 80 R0
WINDOW 123 0 0 Left 0
WINDOW 39 0 0 Left 0
SYMATTR InstName V1
SYMATTR Value SINE(0 820 50)
SYMBOL res 1120 16 R0
SYMATTR InstName R1
SYMATTR Value 4k
SYMBOL res 1120 144 R0
SYMATTR InstName R2
SYMATTR Value 4k
SYMBOL res 1120 272 R0
SYMATTR InstName R3
SYMATTR Value 35k
SYMBOL res 1120 496 R0
SYMATTR InstName R4
SYMATTR Value 1k
SYMBOL cap 688 224 R0
SYMATTR InstName C5
SYMATTR Value 4µ
SYMBOL cap 752 224 R0
SYMATTR InstName C6
SYMATTR Value 4µ
SYMBOL cap 816 224 R0
SYMATTR InstName C4
SYMATTR Value 4µ
SYMBOL cap 880 224 R0
SYMATTR InstName C3
SYMATTR Value 4µ
SYMBOL cap 1232 368 R0
SYMATTR InstName C1
SYMATTR Value 2µ
SYMBOL cap 1344 320 R0
SYMATTR InstName C2
SYMATTR Value 2µ
SYMBOL ind 768 736 R270
WINDOW 0 32 56 VTop 2
WINDOW 3 5 56 VBottom 2
SYMATTR InstName L1
SYMATTR Value 10
TEXT 144 392 Left 2 !.tran 1
