Version 4
SHEET 1 1812 1756
WIRE 96 144 -240 144
WIRE -240 176 -240 144
WIRE -240 288 -240 256
WIRE 336 288 -240 288
WIRE -240 320 -240 288
WIRE -240 432 -240 400
WIRE -208 432 -240 432
WIRE 96 432 96 224
WIRE 96 432 -208 432
WIRE -208 464 -208 432
WIRE 96 560 -240 560
WIRE -240 592 -240 560
WIRE 96 656 96 560
WIRE -240 704 -240 672
WIRE -240 736 -240 704
WIRE -240 848 -240 816
WIRE -208 848 -240 848
WIRE 96 848 96 736
WIRE 96 848 -208 848
WIRE -208 880 -208 848
FLAG -208 464 0
FLAG -240 144 T9
FLAG -240 288 T10
FLAG -240 432 T11
FLAG -208 880 0
FLAG -240 560 T1
FLAG -240 704 T2
FLAG -240 848 T3
SYMBOL voltage -240 160 R0
WINDOW 123 0 0 Left 0
WINDOW 39 0 0 Left 0
SYMATTR InstName V1
SYMATTR Value SINE(0 3 50)
SYMBOL voltage -240 304 R0
WINDOW 123 0 0 Left 0
WINDOW 39 0 0 Left 0
SYMATTR InstName V2
SYMATTR Value SINE(0 3 50)
SYMBOL res 80 128 R0
SYMATTR InstName R1
SYMATTR Value 1k
SYMBOL voltage -240 576 R0
WINDOW 123 0 0 Left 0
WINDOW 39 0 0 Left 0
SYMATTR InstName V3
SYMATTR Value SINE(0 405 50)
SYMBOL voltage -240 720 R0
WINDOW 123 0 0 Left 0
WINDOW 39 0 0 Left 0
SYMATTR InstName V4
SYMATTR Value SINE(0 405 50)
SYMBOL res 80 640 R0
SYMATTR InstName R2
SYMATTR Value 1k
SYMBOL cap 400 272 R90
WINDOW 0 0 32 VBottom 2
WINDOW 3 32 32 VTop 2
SYMATTR InstName C5
SYMBOL cap 384 640 R0
SYMATTR InstName C2
TEXT -240 968 Left 2 !.tran 0.1
TEXT -240 1040 Left 2 !.meas TRAN IN_RMS RMS V(T1) FROM 0 TO .1
