Version 4
SHEET 1 880 852
WIRE 448 0 304 0
WIRE 608 0 448 0
WIRE 784 0 672 0
WIRE 304 32 304 0
WIRE 64 64 -48 64
WIRE 144 64 64 64
WIRE 784 96 784 0
WIRE -48 112 -48 64
WIRE 144 112 144 64
WIRE 304 144 304 112
WIRE 432 144 304 144
WIRE 304 176 304 144
WIRE 432 192 432 144
WIRE -48 240 -48 192
WIRE 80 240 -48 240
WIRE 144 240 144 192
WIRE 144 240 80 240
WIRE 80 288 80 240
WIRE 304 288 304 256
WIRE 448 288 304 288
WIRE 608 288 448 288
WIRE 784 288 784 176
WIRE 784 288 672 288
WIRE 528 352 304 352
WIRE 304 400 304 352
WIRE 80 432 80 368
WIRE 304 512 304 480
WIRE 624 512 304 512
WIRE 672 512 624 512
WIRE 304 544 304 512
WIRE 528 560 528 352
WIRE 304 672 304 624
WIRE 416 672 304 672
WIRE 528 672 528 640
WIRE 528 672 416 672
WIRE 416 688 416 672
WIRE 416 800 416 768
FLAG 80 432 0
FLAG 432 192 0
FLAG 64 64 Prim
FLAG 448 0 Sec1
FLAG 448 288 Sec2
FLAG 416 800 0
FLAG 624 512 T10
SYMBOL ind2 128 96 R0
SYMATTR InstName L1
SYMATTR Value 1m
SYMBOL ind2 320 128 R180
WINDOW 0 36 80 Left 2
WINDOW 3 36 40 Left 2
SYMATTR InstName L2
SYMATTR Value 1.5m
SYMBOL ind2 320 272 R180
WINDOW 0 36 80 Left 2
WINDOW 3 36 40 Left 2
SYMATTR InstName L3
SYMATTR Value 1.5m
SYMBOL voltage -48 96 R0
WINDOW 123 0 0 Left 0
WINDOW 39 24 124 Left 2
SYMATTR SpiceLine Rser=.1
SYMATTR InstName V1
SYMATTR Value SINE(0 110 50)
SYMBOL res 64 272 R0
SYMATTR InstName R1
SYMATTR Value 100000k
SYMBOL res 768 80 R0
SYMATTR InstName R2
SYMATTR Value 1k
SYMBOL diode 608 16 R270
WINDOW 0 32 32 VTop 2
WINDOW 3 0 32 VBottom 2
SYMATTR InstName D1
SYMBOL diode 608 304 R270
WINDOW 0 32 32 VTop 2
WINDOW 3 0 32 VBottom 2
SYMATTR InstName D2
SYMBOL ind2 320 496 R180
WINDOW 0 36 80 Left 2
WINDOW 3 36 40 Left 2
SYMATTR InstName L4
SYMATTR Value 10µ
SYMBOL ind2 320 640 R180
WINDOW 0 36 80 Left 2
WINDOW 3 36 40 Left 2
SYMATTR InstName L5
SYMATTR Value 10µ
SYMBOL res 512 544 R0
SYMATTR InstName R3
SYMATTR Value 1k
SYMBOL res 400 672 R0
SYMATTR InstName R4
SYMATTR Value 100000k
TEXT 32 -32 Left 2 !K L1 L2 L3 L4 L5 1
TEXT -40 528 Left 2 !.tran .1
