Version 4
SHEET 1 880 680
WIRE 288 96 -32 96
WIRE 368 96 288 96
WIRE -32 144 -32 96
WIRE 288 144 288 96
WIRE 368 144 368 96
WIRE -32 272 -32 224
WIRE 160 272 -32 272
WIRE 288 272 288 208
WIRE 336 272 288 272
WIRE 368 272 368 224
WIRE 368 272 336 272
WIRE 160 304 160 272
WIRE 336 336 336 272
WIRE 464 336 336 336
FLAG 160 304 0
FLAG 464 336 Out
SYMBOL voltage -32 128 R0
WINDOW 123 0 0 Left 0
WINDOW 39 0 0 Left 0
SYMATTR InstName V1
SYMATTR Value SINE(0 .01 7000000)
SYMBOL cap 272 144 R0
SYMATTR InstName C1
SYMATTR Value {C}
SYMBOL ind 352 128 R0
SYMATTR InstName L1
SYMATTR Value {L}
TEXT -32 328 Left 2 !.tran .000005
TEXT -24 376 Left 2 !.step param C 10p 100p 10p\n;.param C 50p\n.step param L 1n 1u 100n
