Version 4
SHEET 1 952 680
WIRE -16 -224 -336 -224
WIRE 368 -224 -16 -224
WIRE 560 -224 368 -224
WIRE 832 -224 624 -224
WIRE -336 -32 -336 -224
WIRE -16 -32 -16 -224
WIRE 368 -16 368 -224
WIRE 320 48 176 48
WIRE 832 80 832 -224
WIRE -336 112 -336 48
WIRE 176 128 176 48
WIRE -16 224 -16 48
WIRE 176 224 176 192
WIRE 176 224 -16 224
WIRE 832 240 832 160
WIRE -16 304 -16 224
WIRE -16 416 -16 368
WIRE 368 416 368 48
WIRE 368 416 -16 416
FLAG -336 112 0
FLAG 832 240 0
SYMBOL Misc\\DIAC 144 128 R0
SYMATTR InstName U1
SYMBOL Misc\\TRIAC 336 -16 R0
SYMATTR InstName U2
SYMBOL cap 0 368 R180
WINDOW 0 24 56 Left 2
WINDOW 3 24 8 Left 2
SYMATTR InstName C1
SYMATTR Value 800n
SYMBOL cap 560 -208 R270
WINDOW 0 32 32 VTop 2
WINDOW 3 0 32 VBottom 2
SYMATTR InstName C2
SYMATTR Value 100n
SYMBOL res -32 -48 R0
SYMATTR InstName R1
SYMATTR Value {R_TRIM}
SYMBOL voltage -336 -48 R0
WINDOW 123 0 0 Left 0
WINDOW 39 0 0 Left 0
SYMATTR InstName V1
SYMATTR Value SINE(0 120 50)
SYMBOL res 816 64 R0
SYMATTR InstName R_LOAD
SYMATTR Value 100
