Version 4
SHEET 1 1520 960
WIRE 256 96 -64 96
WIRE 384 96 320 96
WIRE 624 96 384 96
WIRE 736 96 624 96
WIRE 928 96 800 96
WIRE 1248 96 928 96
WIRE -64 144 -64 96
WIRE 384 176 384 96
WIRE 624 176 624 96
WIRE 928 176 928 96
WIRE 1248 176 1248 96
WIRE -64 304 -64 224
WIRE 384 304 384 240
WIRE 384 304 -64 304
WIRE 480 304 384 304
WIRE 624 304 624 240
WIRE 624 304 544 304
WIRE 928 304 928 240
WIRE 928 304 624 304
WIRE 1088 304 928 304
WIRE 1152 304 1136 304
WIRE 1248 304 1248 240
WIRE 1248 304 1152 304
SYMBOL voltage -64 128 R0
SYMATTR InstName V1
SYMBOL cap 320 80 R90
WINDOW 0 0 32 VBottom 2
WINDOW 3 32 32 VTop 2
SYMATTR InstName C1
SYMATTR Value 100n
SYMBOL cap 800 80 R90
WINDOW 0 0 32 VBottom 2
WINDOW 3 32 32 VTop 2
SYMATTR InstName C2
SYMATTR Value 100n
SYMBOL cap 544 288 R90
WINDOW 0 0 32 VBottom 2
WINDOW 3 32 32 VTop 2
SYMATTR InstName C3
SYMATTR Value 100n
SYMBOL cap 1152 288 R90
WINDOW 0 0 32 VBottom 2
WINDOW 3 32 32 VTop 2
SYMATTR InstName C4
SYMATTR Value 100n
SYMBOL cap 256 624 R90
WINDOW 0 0 32 VBottom 2
WINDOW 3 32 32 VTop 2
SYMATTR InstName C5
SYMATTR Value 100n
SYMBOL cap 832 624 R90
WINDOW 0 0 32 VBottom 2
WINDOW 3 32 32 VTop 2
SYMATTR InstName C6
SYMATTR Value 100n
SYMBOL cap 560 880 R90
WINDOW 0 0 32 VBottom 2
WINDOW 3 32 32 VTop 2
SYMATTR InstName C7
SYMATTR Value 100n
SYMBOL cap 1232 896 R90
WINDOW 0 0 32 VBottom 2
WINDOW 3 32 32 VTop 2
SYMATTR InstName C8
SYMATTR Value 100n
SYMBOL diode 400 240 R180
WINDOW 0 24 64 Left 2
WINDOW 3 24 0 Left 2
SYMATTR InstName D1
SYMATTR Value RRD20TJ10S
SYMBOL diode 944 240 R180
WINDOW 0 24 64 Left 2
WINDOW 3 24 0 Left 2
SYMATTR InstName D2
SYMATTR Value RRD20TJ10S
SYMBOL diode 608 176 R0
SYMATTR InstName D3
SYMATTR Value RRD20TJ10S
SYMBOL diode 1232 176 R0
SYMATTR InstName D4
SYMATTR Value RRD20TJ10S
SYMBOL diode 336 736 R0
SYMATTR InstName D5
SYMATTR Value RRD20TJ10S
SYMBOL diode 672 800 R180
WINDOW 0 24 64 Left 2
WINDOW 3 24 0 Left 2
SYMATTR InstName D6
SYMATTR Value RRD20TJ10S
SYMBOL diode 1024 736 R0
SYMATTR InstName D7
SYMATTR Value RRD20TJ10S
SYMBOL diode 1392 800 R180
WINDOW 0 24 64 Left 2
WINDOW 3 24 0 Left 2
SYMATTR InstName D8
SYMATTR Value RRD20TJ10S
