Version 4.1
SHEET 1 880 680
SYMBOL pnp 80 80 R270
SYMATTR InstName T2
SYMBOL pnp 192 224 M0
SYMATTR InstName T1
SYMBOL voltage -288 96 R0
SYMATTR InstName V1
SYMBOL diode 256 144 R90
WINDOW 0 0 32 VBottom 2
WINDOW 3 32 32 VTop 2
SYMATTR InstName D1
SYMBOL zener 112 416 R0
SYMATTR InstName D2
