Version 4.1
SHEET 1 948 944
WIRE -128 32 -464 32
WIRE -64 32 -128 32
WIRE 128 32 16 32
WIRE 432 32 224 32
WIRE 592 32 432 32
WIRE 640 32 592 32
WIRE 128 48 128 32
WIRE 224 48 224 32
WIRE 592 96 592 32
WIRE 176 192 176 112
WIRE 288 192 176 192
WIRE 432 192 432 32
WIRE 432 192 368 192
WIRE 592 224 592 176
WIRE -128 272 -128 32
WIRE 80 272 -128 272
WIRE 176 272 176 192
WIRE -464 400 -464 32
WIRE -128 432 -128 272
WIRE -48 432 -128 432
WIRE 128 432 128 336
WIRE 128 432 32 432
WIRE 128 496 128 432
WIRE 432 496 432 192
WIRE 432 496 224 496
WIRE -464 512 -464 480
WIRE 176 624 176 560
WIRE 176 752 176 688
WIRE 272 752 176 752
WIRE 432 752 432 496
WIRE 432 752 336 752
WIRE -128 896 -128 432
WIRE 48 896 -128 896
WIRE 176 896 176 752
WIRE 176 896 128 896
WIRE 224 896 176 896
WIRE 432 896 432 752
WIRE 432 896 304 896
FLAG -464 512 0
FLAG 592 224 0
SYMBOL pnp 128 112 R270
WINDOW 0 -8 75 VRight 2
WINDOW 3 -32 78 VRight 2
SYMATTR InstName T1
SYMBOL pnp 80 336 R270
WINDOW 0 -4 78 VRight 2
WINDOW 3 -32 82 VRight 2
SYMATTR InstName Q2
SYMBOL pnp 128 560 R270
WINDOW 0 2 94 VRight 2
WINDOW 3 -26 98 VRight 2
SYMATTR InstName Q3
SYMBOL zener 160 624 R0
SYMATTR InstName D1
SYMBOL cap 336 736 R90
WINDOW 0 0 32 VBottom 2
WINDOW 3 32 32 VTop 2
SYMATTR InstName C1
SYMATTR Value 15n
SYMBOL res 32 16 R90
WINDOW 0 0 56 VBottom 2
WINDOW 3 32 56 VTop 2
SYMATTR InstName R1
SYMATTR Value {R1}
SYMBOL res 384 176 R90
WINDOW 0 0 56 VBottom 2
WINDOW 3 32 56 VTop 2
SYMATTR InstName R2
SYMATTR Value {R2}
SYMBOL res 48 416 R90
WINDOW 0 0 56 VBottom 2
WINDOW 3 32 56 VTop 2
SYMATTR InstName R3
SYMATTR Value {R3}
SYMBOL res 144 880 R90
WINDOW 0 0 56 VBottom 2
WINDOW 3 32 56 VTop 2
SYMATTR InstName R4
SYMATTR Value {R4}
SYMBOL res 320 880 R90
WINDOW 0 0 56 VBottom 2
WINDOW 3 32 56 VTop 2
SYMATTR InstName R5
SYMATTR Value {R5}
SYMBOL voltage -464 384 R0
WINDOW 123 0 0 Left 0
WINDOW 39 0 0 Left 0
SYMATTR InstName V1
SYMATTR Value 12
SYMBOL res 576 80 R0
SYMATTR InstName R6
SYMATTR Value {RLoad}
TEXT 536 432 Left 2 !.param R1=1.5\n.param R2=100\n.param R3=800\n.param R4=1000\n.param R5=2500
TEXT 592 280 Left 2 !;.param RLoad=5000\n.step param RLoad 2 1000 100
TEXT 552 648 Left 2 !.tran 1
