Version 4
SHEET 1 880 692
WIRE -208 0 -368 0
WIRE -32 0 -208 0
WIRE 96 0 -32 0
WIRE 288 0 96 0
WIRE 528 0 288 0
WIRE 720 0 528 0
WIRE -208 16 -208 0
WIRE -32 16 -32 0
WIRE 96 16 96 0
WIRE 288 16 288 0
WIRE 528 16 528 0
WIRE 720 16 720 0
WIRE -368 32 -368 0
WIRE -368 144 -368 112
WIRE -208 144 -208 96
WIRE -160 144 -208 144
WIRE 96 144 96 96
WIRE 96 144 -96 144
WIRE 288 144 288 96
WIRE 608 144 288 144
WIRE 720 144 720 96
WIRE 720 144 672 144
WIRE -208 352 -208 144
WIRE 720 352 720 144
WIRE -32 400 -32 96
WIRE -32 400 -144 400
WIRE -16 400 -32 400
WIRE 48 400 288 144
WIRE 416 400 96 144
WIRE 528 400 528 96
WIRE 528 400 480 400
WIRE 656 400 528 400
WIRE -208 464 -208 448
WIRE 720 464 720 448
FLAG 720 464 0
FLAG -208 464 0
FLAG -368 144 0
SYMBOL RES -224 0 R0
SYMATTR InstName R1
SYMATTR Value 2.2k
SYMBOL res 704 0 R0
SYMATTR InstName R6
SYMATTR Value 2.2k
SYMBOL res 80 0 R0
SYMATTR InstName R3
SYMATTR Value 2.2k
SYMBOL res 272 0 R0
WINDOW 3 40 77 Left 2
SYMATTR Value 2.2k
SYMATTR InstName R4
SYMBOL cap 48 384 R90
WINDOW 0 0 32 VBottom 2
WINDOW 3 32 32 VTop 2
SYMATTR InstName C1
SYMATTR Value 4n
SYMBOL cap 480 384 R90
WINDOW 0 0 32 VBottom 2
WINDOW 3 32 32 VTop 2
SYMATTR InstName C2
SYMATTR Value 4n
SYMBOL VOLTAGE -368 16 R0
WINDOW 123 0 0 Left 0
WINDOW 39 0 0 Left 0
SYMATTR InstName V1
SYMATTR Value 9
SYMBOL NPN 656 352 R0
SYMATTR InstName Q1
SYMATTR Value 2N3904
SYMBOL npn -144 352 M0
SYMATTR InstName Q2
SYMATTR Value 2N3904
SYMBOL diode -96 128 R90
WINDOW 0 0 32 VBottom 2
WINDOW 3 32 32 VTop 2
SYMATTR InstName D1
SYMATTR Value 1N4148
SYMBOL diode 608 160 R270
WINDOW 0 32 32 VTop 2
WINDOW 3 0 32 VBottom 2
SYMATTR InstName D2
SYMATTR Value 1N4148
SYMBOL res -48 0 R0
SYMATTR InstName R2
SYMATTR Value 100k
SYMBOL res 512 0 R0
SYMATTR InstName R5
SYMATTR Value 100k
TEXT 176 624 Left 2 !.tran 20m startup
TEXT 168 672 Top 1 ;cf explications https://www.youtube.com/watch?v=dQbrI_iQWig
