Version 4
SHEET 1 880 680
WIRE 208 16 -48 16
WIRE 208 48 208 16
WIRE -48 144 -48 16
WIRE 208 160 208 128
WIRE 288 160 208 160
WIRE 208 208 208 160
WIRE -48 288 -48 224
WIRE 112 288 -48 288
WIRE 208 288 208 272
WIRE 208 288 112 288
WIRE 112 320 112 288
FLAG 112 320 0
FLAG 288 160 Out
SYMBOL zener 224 272 R180
WINDOW 0 24 64 Left 2
WINDOW 3 24 0 Left 2
SYMATTR InstName D1
SYMATTR Value BZX84B6V2L
SYMATTR Description Diode
SYMATTR Type diode
SYMBOL res 192 32 R0
SYMATTR InstName R1
SYMATTR Value 200
SYMBOL voltage -48 128 R0
WINDOW 123 0 0 Left 0
WINDOW 39 0 0 Left 0
SYMATTR InstName V1
SYMATTR Value SINE(0 9 1)
TEXT 512 304 Left 2 !.tran 3 startup
