Version 4
SHEET 1 880 784
WIRE 400 384 400 368
WIRE -944 400 -944 352
WIRE -688 400 -688 352
WIRE 128 496 0 496
WIRE 240 496 192 496
WIRE 400 496 400 464
WIRE 400 496 240 496
WIRE 672 496 400 496
WIRE 704 496 672 496
WIRE -944 512 -944 480
WIRE -688 512 -688 480
WIRE 400 528 400 496
WIRE 0 560 0 496
WIRE 240 560 240 496
WIRE 0 672 0 640
WIRE 64 672 0 672
WIRE 240 672 240 640
WIRE 240 672 64 672
WIRE 400 672 400 608
WIRE 400 672 240 672
WIRE 64 704 64 672
FLAG -688 512 0
FLAG -944 512 0
FLAG -688 352 modul
FLAG -944 352 carrier
FLAG 64 704 0
FLAG 0 496 Modulation
FLAG 672 496 Out
DATAFLAG 0 560 "$"
SYMBOL voltage -688 384 R0
WINDOW 123 0 0 Left 0
WINDOW 39 0 0 Left 0
SYMATTR InstName V1
SYMATTR Value PULSE(0 1 0 .1us .1us .1ms .2ms)
SYMBOL voltage -944 384 R0
WINDOW 123 0 0 Left 0
WINDOW 39 0 0 Left 0
SYMATTR InstName V2
SYMATTR Value SINE(0 3.04 50k)
SYMBOL bv 0 544 R0
WINDOW 3 -279 58 Left 2
SYMATTR Value V=V(carrier)*V(modul)
SYMATTR InstName B1
SYMBOL cap 192 480 R90
WINDOW 0 0 32 VBottom 2
WINDOW 3 32 32 VTop 2
SYMATTR InstName C1
SYMATTR Value .01µ
SYMBOL res 384 368 R0
SYMATTR InstName R2
SYMATTR Value 10k
SYMBOL res 384 512 R0
SYMATTR InstName R3
SYMATTR Value 10k
SYMBOL voltage 400 272 R0
WINDOW 123 0 0 Left 0
WINDOW 39 0 0 Left 0
SYMATTR InstName V3
SYMATTR Value 5
TEXT 200 768 Left 2 !.tran .6ms
