Version 4
SHEET 1 1364 708
WIRE 48 -432 -400 -432
WIRE -400 -384 -400 -432
WIRE -400 -256 -400 -304
WIRE 48 -64 48 -432
WIRE 48 -64 -288 -64
WIRE 960 -64 48 -64
WIRE 48 -48 48 -64
WIRE 960 -32 960 -64
WIRE -288 -16 -288 -64
WIRE 48 64 48 32
WIRE 256 64 48 64
WIRE 544 64 320 64
WIRE 960 80 960 48
WIRE 1040 80 960 80
WIRE 1104 80 1040 80
WIRE 1248 80 1168 80
WIRE -448 112 -512 112
WIRE -288 112 -288 64
WIRE -288 112 -384 112
WIRE -64 112 -288 112
WIRE 48 112 48 64
WIRE 960 112 960 80
WIRE 1248 112 1248 80
WIRE -512 160 -512 112
WIRE 144 160 96 160
WIRE 0 176 -208 176
WIRE 1040 176 1040 80
WIRE 1040 176 1008 176
WIRE 544 192 544 64
WIRE 912 192 544 192
WIRE 1248 224 1248 192
WIRE 544 256 544 192
WIRE -416 272 -512 272
WIRE -208 272 -208 176
WIRE -208 272 -352 272
WIRE -64 304 -64 112
WIRE 144 304 144 160
WIRE 144 304 -64 304
WIRE -512 320 -512 272
WIRE 928 320 928 240
WIRE 928 320 816 320
WIRE 1120 320 928 320
WIRE 1248 320 1184 320
WIRE 16 336 16 224
WIRE 144 336 16 336
WIRE -208 352 -208 272
WIRE 16 368 16 336
WIRE 144 368 144 336
WIRE 816 368 816 320
WIRE 928 368 928 320
WIRE 1248 368 1248 320
WIRE -512 432 -512 400
WIRE -208 464 -208 432
WIRE 16 480 16 448
WIRE 144 480 144 432
WIRE 144 480 16 480
WIRE 1248 480 1248 448
WIRE 544 496 544 336
WIRE 816 496 816 432
WIRE 816 496 544 496
WIRE 928 496 928 448
WIRE 928 496 816 496
WIRE 16 512 16 480
WIRE 928 576 928 496
WIRE 928 688 928 656
FLAG 16 512 0
FLAG -208 464 0
FLAG 928 688 0
FLAG -512 160 0
FLAG -400 -256 0
FLAG -512 432 0
FLAG 1248 224 0
FLAG 1248 480 0
SYMBOL voltage -400 -400 R0
WINDOW 123 0 0 Left 0
WINDOW 39 0 0 Left 0
SYMATTR InstName V1
SYMATTR Value 300
SYMBOL res 32 -64 R0
SYMATTR InstName R1
SYMATTR Value 100k
SYMBOL res 944 -48 R0
SYMATTR InstName R2
SYMATTR Value 20k
SYMBOL res 528 240 R0
SYMATTR InstName R3
SYMATTR Value 1000k
SYMBOL res 912 352 R0
SYMATTR InstName R4
SYMATTR Value 1.8k
SYMBOL res 912 560 R0
SYMATTR InstName R5
SYMATTR Value 20k
SYMBOL res -304 -32 R0
SYMATTR InstName R6
SYMATTR Value 390k
SYMBOL res -224 336 R0
SYMATTR InstName R7
SYMATTR Value 250k
SYMBOL cap 320 48 R90
WINDOW 0 0 32 VBottom 2
WINDOW 3 32 32 VTop 2
SYMATTR InstName C1
SYMATTR Value 0.47µ
SYMBOL cap -352 256 R90
WINDOW 0 0 32 VBottom 2
WINDOW 3 32 32 VTop 2
SYMATTR InstName C2
SYMATTR Value 0.47µ
SYMBOL cap -384 96 R90
WINDOW 0 0 32 VBottom 2
WINDOW 3 32 32 VTop 2
SYMATTR InstName C3
SYMATTR Value 0.47µ
SYMBOL cap 160 432 R180
WINDOW 0 24 56 Left 2
WINDOW 3 24 8 Left 2
SYMATTR InstName C4
SYMATTR Value 50µ
SYMBOL cap 832 432 R180
WINDOW 0 24 56 Left 2
WINDOW 3 24 8 Left 2
SYMATTR InstName C5
SYMATTR Value 50µ
SYMBOL cap 1120 336 R270
WINDOW 0 32 32 VTop 2
WINDOW 3 0 32 VBottom 2
SYMATTR InstName C6
SYMATTR Value 0.1µ
SYMBOL cap 1104 96 R270
WINDOW 0 32 32 VTop 2
WINDOW 3 0 32 VBottom 2
SYMATTR InstName C7
SYMATTR Value 0.1µ
SYMBOL res 0 352 R0
SYMATTR InstName R8
SYMATTR Value 1k
SYMBOL Misc\\tetrode 48 160 R0
SYMATTR InstName U1
SYMATTR Value EF86
SYMATTR SpiceModel EF86
SYMBOL Misc\\tetrode 960 176 R0
SYMATTR InstName U2
SYMATTR Value EL84
SYMATTR SpiceModel EL84
SYMBOL voltage -512 304 R0
WINDOW 123 0 0 Left 0
WINDOW 39 0 0 Left 0
SYMATTR InstName V2
SYMATTR Value SINE(0 1 200)
SYMBOL res 1232 96 R0
SYMATTR InstName RLoad1
SYMATTR Value 10k
SYMBOL res 1232 352 R0
SYMATTR InstName RLoad2
SYMATTR Value 10k
TEXT 1056 -392 Left 2 !.inc dhTubes.inc
TEXT 136 640 Left 2 !.tran 0.1 startup
