Version 4
SHEET 1 1200 680
WIRE 352 0 320 0
WIRE 496 0 432 0
WIRE 656 0 608 0
WIRE 784 0 736 0
WIRE -64 112 -128 112
WIRE 48 112 -64 112
WIRE 176 112 48 112
WIRE 320 112 320 0
WIRE 320 112 256 112
WIRE 368 112 320 112
WIRE 496 128 496 0
WIRE 496 128 432 128
WIRE 512 128 496 128
WIRE 608 128 608 0
WIRE 608 128 592 128
WIRE 672 128 608 128
WIRE 368 144 336 144
WIRE 784 144 784 0
WIRE 784 144 736 144
WIRE 864 144 784 144
WIRE 1008 144 944 144
WIRE 672 160 576 160
WIRE -64 176 -64 112
WIRE 48 176 48 112
WIRE 336 224 336 144
WIRE 448 224 336 224
WIRE 576 224 576 160
WIRE 576 224 448 224
WIRE 448 256 448 224
WIRE -64 288 -64 240
WIRE 48 288 48 240
FLAG -128 112 Entree
IOPIN -128 112 In
FLAG 1008 144 Sortie
IOPIN 1008 144 Out
FLAG 448 256 0
FLAG 48 288 0
FLAG -64 288 0
SYMBOL Opamps\\opamp 400 64 R0
SYMATTR InstName U1
SYMBOL res 272 96 R90
WINDOW 0 0 56 VBottom 2
WINDOW 3 32 56 VTop 2
SYMATTR InstName R1
SYMATTR Value 100
SYMBOL res 448 -16 R90
WINDOW 0 0 56 VBottom 2
WINDOW 3 32 56 VTop 2
SYMATTR InstName R2
SYMATTR Value {Gain*100}
SYMBOL Opamps\\opamp 704 80 R0
SYMATTR InstName U2
SYMBOL res 608 112 R90
WINDOW 0 0 56 VBottom 2
WINDOW 3 32 56 VTop 2
SYMATTR InstName R3
SYMATTR Value 1
SYMBOL res 752 -16 R90
WINDOW 0 0 56 VBottom 2
WINDOW 3 32 56 VTop 2
SYMATTR InstName R4
SYMATTR Value 1
SYMBOL res 960 128 R90
WINDOW 0 0 56 VBottom 2
WINDOW 3 32 56 VTop 2
SYMATTR InstName R6
SYMATTR Value 1
SYMBOL schottky -80 176 R0
SYMATTR InstName D1
SYMATTR Value 1N5817
SYMATTR Description Diode
SYMATTR Type diode
SYMBOL schottky 64 240 R180
WINDOW 0 24 64 Left 2
WINDOW 3 24 0 Left 2
SYMATTR InstName D2
SYMATTR Value 1N5817
SYMATTR Description Diode
SYMATTR Type diode
TEXT 352 360 Left 2 !.lib opamp.sub
TEXT 352 320 Left 2 !.param Gain={1}
