Version 4
SHEET 1 880 680
WIRE 176 64 96 64
WIRE 320 64 256 64
WIRE -32 192 -208 192
WIRE 64 192 -32 192
WIRE 96 192 96 64
WIRE 96 192 64 192
WIRE 192 192 96 192
WIRE 320 192 320 64
WIRE 320 192 256 192
WIRE 384 192 320 192
WIRE 480 192 384 192
WIRE -208 240 -208 192
WIRE 192 272 192 208
WIRE 64 368 64 192
WIRE 192 368 64 368
WIRE 384 368 384 192
WIRE 384 368 256 368
WIRE 64 400 64 368
WIRE 384 400 384 368
WIRE 64 496 64 464
WIRE 384 496 384 464
FLAG 480 192 Sortie_Osc
IOPIN 480 192 Out
FLAG -208 320 0
FLAG -32 192 Entree
FLAG 192 272 0
FLAG 64 496 0
FLAG 384 496 0
SYMBOL voltage -208 224 R0
WINDOW 3 -859 55 Left 2
WINDOW 0 -50 18 Left 2
SYMATTR Value PULSE(0 1 0 .0000001 .0000001 .000001 .000002 1)
SYMATTR InstName V1
SYMATTR Value2 AC 1
SYMATTR SpiceLine Rser=1000
SYMBOL cap 80 464 R180
WINDOW 0 24 56 Left 2
WINDOW 3 24 8 Left 2
SYMATTR InstName C1
SYMATTR Value 100n
SYMBOL Digital\\inv 192 128 R0
SYMATTR InstName A1
SYMBOL res 160 80 R270
WINDOW 0 32 56 VTop 2
WINDOW 3 0 56 VBottom 2
SYMATTR InstName R2
SYMATTR Value 1000
SYMBOL cap 400 464 R180
WINDOW 0 24 56 Left 2
WINDOW 3 24 8 Left 2
SYMATTR InstName C2
SYMATTR Value 100n
SYMBOL Misc\\xtal 256 352 R90
WINDOW 0 0 32 VBottom 2
WINDOW 3 32 32 VTop 2
SYMATTR InstName C3
SYMATTR Value 10n
SYMATTR SpiceLine Lser=10u
TEXT -1032 480 Left 2 !.tran 0 .001 .00000001
TEXT -968 520 Left 2 !.lib opamp.sub
TEXT -1016 560 Left 2 !;ac dec 1000 10000 1000000
