Version 4
SHEET 1 880 680
WIRE 0 208 -96 208
WIRE 320 208 224 208
WIRE -192 320 -256 320
WIRE -96 320 -96 208
WIRE -96 320 -192 320
WIRE 64 320 -96 320
WIRE 240 320 64 320
WIRE 320 320 320 208
WIRE 320 320 240 320
WIRE 416 320 320 320
WIRE 64 352 64 320
WIRE 240 352 240 320
WIRE -256 368 -256 320
WIRE -256 464 -256 448
WIRE 64 464 64 416
WIRE 240 464 240 432
WIRE 0 0 0 0
FLAG 416 320 Sortie_Osc
IOPIN 416 320 Out
FLAG -256 464 0
FLAG -192 320 Entree
FLAG 240 464 0
FLAG 64 464 0
SYMBOL voltage -256 352 R0
WINDOW 123 50 57 Left 2
WINDOW 39 -240 60 Left 2
WINDOW 3 -601 26 Left 2
WINDOW 0 34 34 Left 2
SYMATTR Value2 AC 1
SYMATTR SpiceLine Rser=100
SYMATTR Value PULSE(0 1 0 .0000001 .0000001 .000001 .000002 1)
SYMATTR InstName V1
SYMBOL res 224 336 R0
SYMATTR InstName R1
SYMATTR Value 100
SYMBOL Bloc_Gain 112 208 M0
WINDOW 0 0 -24 Invisible 2
WINDOW 39 -7 -32 Bottom 2
SYMATTR InstName X1
SYMATTR SpiceLine Gain=1.2
SYMBOL Misc\\xtal 80 416 R180
WINDOW 0 24 72 Left 2
WINDOW 3 24 0 Left 2
SYMATTR InstName C1
SYMATTR Value 1µ
SYMATTR SpiceLine Lser=1u
TEXT -472 544 Left 2 !.tran 0 .001 .00000001 .00000001
TEXT -416 600 Left 2 !.lib opamp.sub
TEXT -424 632 Left 2 !;ac dec 1000 10000 1000000
TEXT 88 248 Left 2 ;AMPLI
