Version 4
SHEET 1 880 680
WIRE 64 112 32 112
WIRE 176 112 144 112
WIRE -160 208 -256 208
WIRE 16 208 -160 208
WIRE 32 208 32 112
WIRE 32 208 16 208
WIRE 80 208 32 208
WIRE 176 208 176 112
WIRE 176 208 144 208
WIRE 192 208 176 208
WIRE 336 208 192 208
WIRE 416 208 336 208
WIRE 80 224 64 224
WIRE 336 240 336 208
WIRE 64 256 64 224
WIRE -256 288 -256 208
WIRE 16 352 16 208
WIRE 64 352 16 352
WIRE 192 352 192 208
WIRE 192 352 128 352
WIRE 336 352 336 320
WIRE -256 384 -256 368
WIRE 16 416 16 352
WIRE 192 416 192 352
WIRE 16 512 16 480
WIRE 192 512 192 480
FLAG 416 208 Sortie_Osc
IOPIN 416 208 Out
FLAG -256 384 0
FLAG -160 208 Entree
FLAG 336 352 0
FLAG 64 256 0
FLAG 16 512 0
FLAG 192 512 0
SYMBOL voltage -256 272 R0
WINDOW 123 50 57 Left 2
WINDOW 39 -240 60 Left 2
WINDOW 3 -601 26 Left 2
WINDOW 0 34 34 Left 2
SYMATTR Value2 AC 1
SYMATTR SpiceLine Rser=1000
SYMATTR Value PULSE(0 1 0 .0000001 .0000001 .000001 .000002 1)
SYMATTR InstName V1
SYMBOL res 320 224 R0
SYMATTR InstName R1
SYMATTR Value 100
SYMBOL Digital\\inv 80 144 R0
SYMATTR InstName A1
SYMBOL cap 0 416 R0
SYMATTR InstName C2
SYMATTR Value 1µ
SYMBOL cap 176 416 R0
SYMATTR InstName C3
SYMATTR Value 1µ
SYMBOL Misc\\xtal 128 336 R90
WINDOW 0 0 32 VBottom 2
WINDOW 3 32 32 VTop 2
SYMATTR InstName C1
SYMATTR Value 1µ
SYMATTR SpiceLine Lser=1u
SYMBOL res 160 96 R90
WINDOW 0 0 56 VBottom 2
WINDOW 3 32 56 VTop 2
SYMATTR InstName R2
SYMATTR Value 100
TEXT -856 416 Left 2 !.tran 0 .001 .00000001 .00000001
TEXT -800 472 Left 2 !.lib opamp.sub
TEXT -808 504 Left 2 !;ac dec 1000 10000 1000000
TEXT -264 80 Left 2 ;Oscillateur Pierce
