Version 4
SHEET 1 880 680
WIRE -112 192 -352 192
WIRE -32 192 -112 192
WIRE 32 192 -32 192
WIRE 384 192 256 192
WIRE 448 192 384 192
WIRE -352 240 -352 192
WIRE -112 352 -112 192
WIRE -48 352 -112 352
WIRE 112 352 32 352
WIRE 240 352 176 352
WIRE 384 352 384 192
WIRE 384 352 320 352
FLAG 448 192 Sortie_Osc
IOPIN 448 192 Out
FLAG -352 320 0
FLAG -32 192 Entree
SYMBOL voltage -352 224 R0
WINDOW 123 24 44 Left 2
WINDOW 39 -183 68 Left 2
WINDOW 3 -601 26 Left 2
SYMATTR Value2 AC 1
SYMATTR SpiceLine Rser=1000
SYMATTR Value PULSE(0 1 0 .0000001 .0000001 .000001 .000002 1)
SYMATTR InstName V1
SYMBOL ind 336 336 R90
WINDOW 0 5 56 VBottom 2
WINDOW 3 32 56 VTop 2
SYMATTR InstName L1
SYMATTR Value 1µ
SYMBOL cap 176 336 R90
WINDOW 0 0 32 VBottom 2
WINDOW 3 32 32 VTop 2
SYMATTR InstName C1
SYMATTR Value 1µ
SYMBOL res -64 368 R270
WINDOW 0 32 56 VTop 2
WINDOW 3 0 56 VBottom 2
SYMATTR InstName R1
SYMATTR Value 1
SYMBOL Bloc_Gain 144 192 R0
WINDOW 0 0 -24 Invisible 2
WINDOW 39 -7 -32 Bottom 2
SYMATTR InstName X1
SYMATTR SpiceLine Gain=1.1
TEXT -472 456 Left 2 !.tran 0 .001 .00000001 .00000001
TEXT -408 496 Left 2 !.lib opamp.sub
TEXT -456 536 Left 2 !;ac dec 1000 10000 1000000
