Version 4
SHEET 1 880 680
WIRE 144 -384 80 -384
WIRE 288 -384 224 -384
WIRE 16 -352 -80 -352
WIRE -80 -320 -80 -352
WIRE 16 -288 16 -352
WIRE 80 -288 80 -384
WIRE 80 -288 16 -288
WIRE 144 -288 80 -288
WIRE 288 -288 288 -384
WIRE 288 -288 256 -288
WIRE 336 -288 288 -288
WIRE 336 -256 336 -288
WIRE 80 -240 80 -288
WIRE -80 -160 -80 -240
WIRE 80 -160 80 -176
WIRE 80 -160 -80 -160
WIRE 160 -160 80 -160
WIRE 336 -160 336 -176
WIRE 336 -160 160 -160
WIRE 160 -144 160 -160
WIRE 160 48 96 48
WIRE 304 48 240 48
WIRE 32 80 -64 80
WIRE -64 112 -64 80
WIRE 32 144 32 80
WIRE 96 144 96 48
WIRE 96 144 32 144
WIRE 160 144 96 144
WIRE 304 144 304 48
WIRE 304 144 272 144
WIRE 352 144 304 144
WIRE 352 176 352 144
WIRE 96 192 96 144
WIRE -64 272 -64 192
WIRE 96 272 96 256
WIRE 96 272 -64 272
WIRE 176 272 96 272
WIRE 352 272 352 256
WIRE 352 272 176 272
WIRE 176 288 176 272
FLAG 176 288 0
FLAG 160 -144 0
SYMBOL Digital\\74HC\\74hc14 208 96 R0
SYMATTR InstName U1
SYMBOL res 256 32 R90
WINDOW 0 0 56 VBottom 2
WINDOW 3 32 56 VTop 2
SYMATTR InstName R1
SYMATTR Value 1k
SYMBOL cap 80 192 R0
SYMATTR InstName C1
SYMATTR Value 10µ
SYMBOL res 336 160 R0
SYMATTR InstName R2
SYMATTR Value 1k
SYMBOL voltage -64 96 R0
WINDOW 123 0 0 Left 0
WINDOW 39 0 0 Left 0
SYMATTR InstName V1
SYMATTR Value PULSE(0 5 0 .001u .001u .001m .002m 10)
SYMBOL Digital\\74HC\\74hc14 192 -336 R0
SYMATTR InstName U2
SYMBOL res 240 -400 R90
WINDOW 0 0 56 VBottom 2
WINDOW 3 32 56 VTop 2
SYMATTR InstName R3
SYMATTR Value 1k
SYMBOL cap 64 -240 R0
SYMATTR InstName C2
SYMATTR Value 10µ
SYMBOL res 320 -272 R0
SYMATTR InstName R4
SYMATTR Value 1k
SYMBOL voltage -80 -336 R0
WINDOW 123 0 0 Left 0
WINDOW 39 0 0 Left 0
SYMATTR InstName V2
SYMATTR Value SINE(0 5 100000 0 0 0 2)
TEXT -16 416 Left 2 !.tran .0002 startup
TEXT 368 48 Left 2 !.lib 74hc.lib
