Version 4
SHEET 1 880 680
WIRE 64 -160 -16 -160
WIRE -16 -144 -16 -160
WIRE 64 -128 64 -160
WIRE 64 -32 64 -48
WIRE 64 -32 -96 -32
WIRE 64 0 64 -32
WIRE -96 16 -96 -32
WIRE 64 112 64 80
WIRE 352 176 224 176
WIRE 528 176 432 176
WIRE 608 176 528 176
WIRE 624 176 608 176
WIRE 304 272 304 240
WIRE 304 288 304 272
WIRE 112 304 32 304
WIRE 224 304 224 176
WIRE 224 304 176 304
WIRE 272 304 224 304
WIRE 528 320 528 176
WIRE 528 320 336 320
WIRE 272 336 224 336
WIRE 304 384 304 352
WIRE 304 400 304 384
WIRE 32 432 32 304
WIRE 96 432 32 432
WIRE 224 432 224 336
WIRE 224 432 176 432
WIRE 352 432 224 432
WIRE 528 432 528 320
WIRE 528 432 432 432
WIRE 32 512 32 432
FLAG 32 512 0
FLAG -96 16 0
FLAG -16 -144 Vcc
FLAG 64 112 -Vcc
FLAG 608 176 out
FLAG 304 272 Vcc
FLAG 304 384 -Vcc
SYMBOL Opamps/ADTL084 304 256 R0
SYMATTR InstName U1
SYMBOL res 192 416 R90
WINDOW 0 0 56 VBottom 2
WINDOW 3 32 56 VTop 2
SYMATTR InstName R1
SYMATTR Value 2.4k
SYMBOL res 448 416 R90
WINDOW 0 0 56 VBottom 2
WINDOW 3 32 56 VTop 2
SYMATTR InstName R3
SYMATTR Value 10k
SYMBOL res 448 160 R90
WINDOW 0 0 56 VBottom 2
WINDOW 3 32 56 VTop 2
SYMATTR InstName R2
SYMATTR Value 5k
SYMBOL cap 176 288 R90
WINDOW 0 0 32 VBottom 2
WINDOW 3 32 32 VTop 2
SYMATTR InstName C1
SYMATTR Value 1n
SYMBOL voltage 64 -144 R0
SYMATTR InstName V99
SYMATTR Value 4.5
SYMBOL voltage 64 -16 R0
SYMATTR InstName V98
SYMATTR Value 4.5
TEXT 480 480 Left 2 !.tran .0002 startup
