Version 4
SHEET 1 880 680
WIRE 400 -16 160 -16
WIRE 96 0 -128 0
WIRE 160 16 160 -16
WIRE 400 64 400 -16
WIRE -128 80 -128 0
WIRE 96 80 96 0
WIRE 160 128 160 96
WIRE -128 208 -128 160
WIRE 96 208 96 160
WIRE 96 208 -128 208
WIRE 160 224 160 208
WIRE 304 224 160 224
WIRE 400 224 400 144
WIRE 400 224 304 224
WIRE 304 256 304 224
FLAG 304 256 0
SYMBOL ind2 80 64 R0
WINDOW 0 -30 51 Left 2
WINDOW 3 -12 75 Left 2
SYMATTR InstName L1
SYMATTR Value 1m
SYMATTR Type ind
SYMBOL ind2 176 0 M0
WINDOW 0 -34 30 Left 2
WINDOW 3 -24 75 Left 2
SYMATTR InstName L2
SYMATTR Value 1m
SYMATTR Type ind
SYMBOL ind2 176 224 R180
WINDOW 0 -34 82 Left 2
WINDOW 3 -22 34 Left 2
SYMATTR InstName L3
SYMATTR Value 1m
SYMATTR Type ind
SYMBOL voltage -128 64 R0
WINDOW 123 0 0 Left 0
WINDOW 39 24 124 Left 2
SYMATTR InstName V1
SYMATTR Value SINE(0 10 50)
SYMATTR SpiceLine Rser=1
SYMBOL res 384 48 R0
SYMATTR InstName R1
SYMATTR Value 1000
TEXT 16 -24 Left 2 !K L1 L2 L3 1
TEXT 96 312 Left 2 !.tran 0.1
