Version 4
SHEET 1 880 680
FLAG -176 160 0
FLAG 0 160 0
FLAG 0 592 0
FLAG 256 592 0
FLAG 416 224 0
FLAG -448 592 0
FLAG -32 -224 0
SYMBOL npn 160 -224 R0
SYMATTR InstName Q1
SYMATTR Value BC548
SYMBOL npn -384 352 M0
SYMATTR InstName Q2
SYMATTR Value BC548B
SYMBOL cap 64 -16 R270
WINDOW 0 32 32 VTop 2
WINDOW 3 0 32 VBottom 2
SYMATTR InstName C1
SYMBOL cap -48 -48 R90
WINDOW 0 0 32 VBottom 2
WINDOW 3 32 32 VTop 2
SYMATTR InstName C2
SYMBOL cap -240 64 R180
WINDOW 0 24 56 Left 2
WINDOW 3 24 8 Left 2
SYMATTR InstName C3
SYMBOL cap 16 544 R180
WINDOW 0 24 56 Left 2
WINDOW 3 24 8 Left 2
SYMATTR InstName C4
SYMBOL cap 432 -48 R90
WINDOW 0 0 32 VBottom 2
WINDOW 3 32 32 VTop 2
SYMATTR InstName C5
SYMBOL res -16 32 R0
SYMATTR InstName R1
SYMBOL res -192 32 R0
SYMATTR InstName R2
SYMBOL res -128 352 R90
WINDOW 0 0 56 VBottom 2
WINDOW 3 32 56 VTop 2
SYMATTR InstName R3
SYMBOL res 64 352 R90
WINDOW 0 0 56 VBottom 2
WINDOW 3 32 56 VTop 2
SYMATTR InstName R4
SYMBOL res 224 352 R90
WINDOW 0 0 56 VBottom 2
WINDOW 3 32 56 VTop 2
SYMATTR InstName R5
SYMBOL res -464 -336 R0
WINDOW 3 43 79 Left 2
SYMATTR InstName R6
SYMBOL res 208 16 R0
SYMATTR InstName R7
SYMBOL res 240 448 R0
SYMATTR InstName R8
SYMBOL cap -48 -320 R0
SYMATTR InstName C6
TEXT -480 -448 Left 2 !.include "Standard-new.bjt"
