Version 4
SHEET 1 1700 680
WIRE 0 -448 -448 -448
WIRE 224 -448 0 -448
WIRE 496 -448 224 -448
WIRE -448 -400 -448 -448
WIRE 0 -400 0 -448
WIRE 496 -400 496 -448
WIRE 0 -304 0 -336
WIRE 496 -288 496 -320
WIRE 224 -224 224 -448
WIRE -448 -176 -448 -320
WIRE 160 -176 -448 -176
WIRE -176 -32 -256 -32
WIRE -112 -32 -176 -32
WIRE 0 -32 -48 -32
WIRE 64 -32 0 -32
WIRE 224 -32 224 -128
WIRE 224 -32 128 -32
WIRE 368 -32 224 -32
WIRE 496 -32 432 -32
WIRE -256 0 -256 -32
WIRE -176 16 -176 -32
WIRE 0 16 0 -32
WIRE 224 32 224 -32
WIRE -176 128 -176 96
WIRE 0 128 0 96
WIRE -448 208 -448 -176
WIRE -256 256 -256 64
WIRE -256 256 -384 256
WIRE -240 256 -256 256
WIRE -48 256 -160 256
WIRE 80 256 32 256
WIRE 112 256 80 256
WIRE 224 256 224 112
WIRE 224 256 192 256
WIRE 224 336 224 256
WIRE 80 352 80 256
WIRE -448 432 -448 304
WIRE 80 464 80 416
WIRE 224 464 224 416
FLAG -176 128 0
FLAG 0 128 0
FLAG 80 464 0
FLAG 224 464 0
FLAG -448 432 0
FLAG 0 -304 0
FLAG 496 -288 0
FLAG 496 -32 Out1
SYMBOL npn 160 -224 R0
SYMATTR InstName Q1
SYMATTR Value BC548B
SYMBOL npn -384 208 M0
SYMATTR InstName Q2
SYMATTR Value BC548B
SYMBOL cap 64 -16 R270
WINDOW 0 32 32 VTop 2
WINDOW 3 0 32 VBottom 2
SYMATTR InstName C1
SYMATTR Value {C}
SYMBOL cap -48 -48 R90
WINDOW 0 0 32 VBottom 2
WINDOW 3 32 32 VTop 2
SYMATTR InstName C2
SYMATTR Value {C}
SYMBOL cap -240 64 R180
WINDOW 0 24 56 Left 2
WINDOW 3 24 8 Left 2
SYMATTR InstName C3
SYMATTR Value {C}
SYMBOL cap 96 416 R180
WINDOW 0 24 56 Left 2
WINDOW 3 24 8 Left 2
SYMATTR InstName C4
SYMATTR Value 0.1µ
SYMBOL cap 432 -48 R90
WINDOW 0 0 32 VBottom 2
WINDOW 3 32 32 VTop 2
SYMATTR InstName C5
SYMATTR Value 2.2µ
SYMBOL res -16 0 R0
SYMATTR InstName R1
SYMATTR Value {R}
SYMBOL res -192 0 R0
SYMATTR InstName R2
SYMATTR Value {R}
SYMBOL res -144 240 R90
WINDOW 0 0 56 VBottom 2
WINDOW 3 32 56 VTop 2
SYMATTR InstName R3
SYMATTR Value {R}
SYMBOL res 48 240 R90
WINDOW 0 0 56 VBottom 2
WINDOW 3 32 56 VTop 2
SYMATTR InstName R4
SYMATTR Value 2k
SYMBOL res 208 240 R90
WINDOW 0 0 56 VBottom 2
WINDOW 3 32 56 VTop 2
SYMATTR InstName R5
SYMATTR Value 3900k
SYMBOL res -464 -416 R0
WINDOW 3 43 79 Left 2
SYMATTR Value 56k
SYMATTR InstName R6
SYMBOL res 208 16 R0
SYMATTR InstName R7
SYMATTR Value 15k
SYMBOL res 208 320 R0
SYMATTR InstName R8
SYMATTR Value 10k
SYMBOL cap -16 -400 R0
SYMATTR InstName C6
SYMATTR Value 2.2µ
SYMBOL voltage 496 -416 R0
WINDOW 123 0 0 Left 0
WINDOW 39 0 0 Left 0
SYMATTR InstName V1
SYMATTR Value 12v
TEXT -480 -512 Left 2 !.include "Standard-new.bjt"
TEXT -400 560 Left 2 !.tran 1 startup
TEXT 440 160 Left 2 !.param R=500\n.param C=50n
TEXT -144 536 Left 2 ;Les valeurs de R et C données dans le livre ne donnent pas du tout une\noscillation à 2KHz tel qu'il est dit.\navec 1k et 500n, on obtient 26Hz (CQFD)
